&rtm_inparm
  do_rtm = .false.
  ice_runoff  = .false. 
/
