&mosart_inparam
  do_rtm = .true.
  ice_runoff  = .false. 
/
